28
Interface: Graphene Graphene
C     0.000000e+00  0.000000e+00  0.000000e+00    0.00000  0.00000  0.00000
C     2.790738e+00 -5.370779e-01  0.000000e+00    0.47619  0.09524  0.00000
C     4.186108e+00 -8.056168e-01  0.000000e+00    0.71429  0.14286  0.00000
C     4.651231e-01 -1.342695e+00  0.000000e+00    0.19048  0.23810  0.00000
C     1.860492e+00 -1.611234e+00  0.000000e+00    0.42857  0.28571  0.00000
C     4.651231e+00 -2.148311e+00  0.000000e+00    0.90476  0.38095  0.00000
C    -4.651231e-01 -2.416850e+00  0.000000e+00    0.14286  0.42857  0.00000
C     2.325615e+00 -2.953928e+00  0.000000e+00    0.61905  0.52381  0.00000
C     3.720985e+00 -3.222467e+00  0.000000e+00    0.85714  0.57143  0.00000
C     5.507731e-17 -3.759545e+00  0.000000e+00    0.33333  0.66667  0.00000
C     1.395369e+00 -4.028084e+00  0.000000e+00    0.57143  0.71429  0.00000
C    -2.325615e+00 -4.565162e+00  0.000000e+00    0.04762  0.80952  0.00000
C    -9.302462e-01 -4.833701e+00  0.000000e+00    0.28571  0.85714  0.00000
C     1.860492e+00 -5.370779e+00  0.000000e+00    0.76190  0.95238  0.00000
C     0.000000e+00  0.000000e+00  6.709000e+00    0.00000  0.00000  0.50000
C     5.116354e+00 -2.685389e-01  6.709000e+00    0.80952  0.04762  0.50000
C     2.325615e+00 -8.056168e-01  6.709000e+00    0.42857  0.14286  0.50000
C     9.302462e-01 -1.074156e+00  6.709000e+00    0.23810  0.19048  0.50000
C     4.651231e+00 -1.611234e+00  6.709000e+00    0.85714  0.28571  0.50000
C     3.255862e+00 -1.879773e+00  6.709000e+00    0.66667  0.33333  0.50000
C     4.651231e-01 -2.416850e+00  6.709000e+00    0.28571  0.42857  0.50000
C    -9.302462e-01 -2.685389e+00  6.709000e+00    0.09524  0.47619  0.50000
C     2.790738e+00 -3.222467e+00  6.709000e+00    0.71429  0.57143  0.50000
C     1.395369e+00 -3.491006e+00  6.709000e+00    0.52381  0.61905  0.50000
C    -1.395369e+00 -4.028084e+00  6.709000e+00    0.14286  0.71429  0.50000
C     3.720985e+00 -4.296623e+00  6.709000e+00    0.95238  0.76190  0.50000
C     9.302462e-01 -4.833701e+00  6.709000e+00    0.57143  0.85714  0.50000
C    -4.651231e-01 -5.102240e+00  6.709000e+00    0.38095  0.90476  0.50000
